
 ANSYS Academic Teaching Introductory              


 *------------------------------------------------------------------*
 |                                                                  |
 |   W E L C O M E   T O   T H E   A N S Y S (R)  P R O G R A M     |
 |                                                                  |
 *------------------------------------------------------------------*




 ***************************************************************
 *            ANSYS Release 18.2     LEGAL NOTICES             *
 ***************************************************************
 *                                                             *
 * Copyright 2017 SAS IP, Inc.  All rights reserved.           *
 * Unauthorized use, distribution or duplication is            *
 * prohibited.                                                 *
 *                                                             *
 * Ansys is a registered trademark of ANSYS, Inc. or its       *
 * subsidiaries in the United States or other countries.       *
 * See the ANSYS, Inc. online documentation or the ANSYS, Inc. *
 * documentation CD or online help for the complete Legal      *
 * Notice.                                                     *
 *                                                             *
 ***************************************************************
 *                                                             *
 * THIS ANSYS SOFTWARE PRODUCT AND PROGRAM DOCUMENTATION       *
 * INCLUDE TRADE SECRETS AND CONFIDENTIAL AND PROPRIETARY      *
 * PRODUCTS OF ANSYS, INC., ITS SUBSIDIARIES, OR LICENSORS.    *
 * The software products and documentation are furnished by    *
 * ANSYS, Inc. or its subsidiaries under a software license    *
 * agreement that contains provisions concerning               *
 * non-disclosure, copying, length and nature of use,          *
 * compliance with exporting laws, warranties, disclaimers,    *
 * limitations of liability, and remedies, and other           *
 * provisions.  The software products and documentation may be *
 * used, disclosed, transferred, or copied only in accordance  *
 * with the terms and conditions of that software license      *
 * agreement.                                                  *
 *                                                             *
 * ANSYS, Inc. is a UL registered                              *
 * ISO 9001:2008 company.                                      *
 *                                                             *
 ***************************************************************
 *                                                             *
 * This product is subject to U.S. laws governing export and   *
 * re-export.                                                  *
 *                                                             *
 * For U.S. Government users, except as specifically granted   *
 * by the ANSYS, Inc. software license agreement, the use,     *
 * duplication, or disclosure by the United States Government  *
 * is subject to restrictions stated in the ANSYS, Inc.        *
 * software license agreement and FAR 12.212 (for non-DOD      *
 * licenses).                                                  *
 *                                                             *
 ***************************************************************

 Release 18.2
     
 Point Releases and Patches installed:   
     
 ANSYS Academic Student Release 18.2 


          *****  ANSYS COMMAND LINE ARGUMENTS  *****
  BATCH MODE REQUESTED (-b)    = NOLIST
  INPUT FILE COPY MODE (-c)    = COPY
  DISTRIBUTED MEMORY PARALLEL REQUESTED
       2 PARALLEL PROCESSES REQUESTED WITH SINGLE THREAD PER PROCESS
    TOTAL OF     2 CORES REQUESTED
  DESIGNXPLORER REQUESTED
  MPI OPTION                   = INTELMPI
  INPUT FILE NAME              = C:\Users\DELL\AppData\Local\Temp\WB_DELL-PC_DELL_8948_2\_ProjectScratch\ScrA75A\dummy.dat
  OUTPUT FILE NAME             = C:\Users\DELL\AppData\Local\Temp\WB_DELL-PC_DELL_8948_2\_ProjectScratch\ScrA75A\solve.out
  START-UP FILE MODE           = NOREAD
  STOP FILE MODE               = NOREAD

 RELEASE= Release 18.2         BUILD= 18.2      UP20170726   VERSION=WINDOWS x64 
 CURRENT JOBNAME=file0  23:56:50  APR 27, 2018 CP=      0.203


 PARAMETER _DS_PROGRESS =     999.0000000    

 /INPUT FILE= ds.dat  LINE=       0



 *** NOTE ***                            CP =       0.421   TIME= 23:56:50
 The /CONFIG,NOELDB command is not valid in a Distributed ANSYS          
 solution.  Command is ignored.                                          

 *GET  _WALLSTRT  FROM  ACTI  ITEM=TIME WALL  VALUE=  23.9472222    

 TITLE= 
 unsaved_project--Static Structural (A5)                                       


 SET PARAMETER DIMENSIONS ON  _WB_PROJECTSCRATCH_DIR
  TYPE=STRI  DIMENSIONS=      248        1        1

 PARAMETER _WB_PROJECTSCRATCH_DIR(1) = C:\Users\DELL\AppData\Local\Temp\WB_DELL-PC_DELL_8948_2\_ProjectScratch\ScrA75A\

 SET PARAMETER DIMENSIONS ON  _WB_SOLVERFILES_DIR
  TYPE=STRI  DIMENSIONS=      248        1        1

 PARAMETER _WB_SOLVERFILES_DIR(1) = C:\Users\DELL\AppData\Local\Temp\WB_DELL-PC_DELL_8948_2\unsaved_project_files\dp0\SYS\MECH\

 SET PARAMETER DIMENSIONS ON  _WB_USERFILES_DIR
  TYPE=STRI  DIMENSIONS=      248        1        1

 PARAMETER _WB_USERFILES_DIR(1) = C:\Users\DELL\AppData\Local\Temp\WB_DELL-PC_DELL_8948_2\unsaved_project_files\user_files\
 --- Data in consistent NMM units. See Solving Units in the help system for more

 MPA UNITS SPECIFIED FOR INTERNAL    
  LENGTH      = MILLIMETERS (mm)
  MASS        = TONNE (Mg)
  TIME        = SECONDS (sec)
  TEMPERATURE = CELSIUS (C)
  TOFFSET     = 273.0
  FORCE       = NEWTON (N)
  HEAT        = MILLIJOULES (mJ)

 INPUT  UNITS ARE ALSO SET TO MPA 

 *** ANSYS - ENGINEERING ANALYSIS SYSTEM  RELEASE Release 18.2     18.2     ***
 DISTRIBUTED ANSYS Academic Teaching Introductory              

 01055371  VERSION=WINDOWS x64   23:56:50  APR 27, 2018 CP=      0.421

 unsaved_project--Static Structural (A5)                                       



          ***** ANSYS ANALYSIS DEFINITION (PREP7) *****
 *********** Nodes for the whole assembly ***********
 *********** Nodes for all Remote Points ***********
 *********** Elements for Body 1 "Solid" ***********
 *********** Send User Defined Coordinate System(s) ***********
 *********** Set Reference Temperature ***********
 *********** Send Materials ***********
 *********** Fixed Supports ***********
 *********** Define Force Using Surface Effect Elements ***********
 *********** Create Remote Point "Internal Remote Point" ***********
 *********** Construct Moment Using Remote Attachment ***********


 ***** ROUTINE COMPLETED *****  CP =         0.484


 --- Number of total nodes = 4521
 --- Number of contact elements = 240
 --- Number of spring elements = 0
 --- Number of bearing elements = 0
 --- Number of solid elements = 720
 --- Number of condensed parts = 0
 --- Number of total elements = 961

 *GET  _WALLBSOL  FROM  ACTI  ITEM=TIME WALL  VALUE=  23.9472222    
 ****************************************************************************
 *************************    SOLUTION       ********************************
 ****************************************************************************

 *****  ANSYS SOLUTION ROUTINE  *****


 PERFORM A STATIC ANALYSIS
  THIS WILL BE A NEW ANALYSIS

 USE PRECONDITIONED CONJUGATE GRADIENT SOLVER
  CONVERGENCE TOLERANCE = 1.00000E-08
  MAXIMUM ITERATION     = NumNode*DofPerNode*  1.0000    

 CONTACT INFORMATION PRINTOUT LEVEL       1

 DO NOT COMBINE ELEMENT MATRIX FILES (.emat) AFTER DISTRIBUTED PARALLEL SOLUTION

 DO NOT COMBINE ELEMENT SAVE DATA FILES (.esav) AFTER DISTRIBUTED PARALLEL SOLUTION

 NLDIAG: Nonlinear diagnostics CONT option is set to ON. 
         Writing frequency : each ITERATION.

 DO NOT SAVE ANY RESTART FILES AT ALL
 ****************************************************
 ******************* SOLVE FOR LS 1 OF 1 ****************

 SELECT       FOR ITEM=TYPE COMPONENT=    
  IN RANGE         2 TO          2 STEP          1

         80  ELEMENTS (OF        961  DEFINED) SELECTED BY  ESEL  COMMAND.

 SELECT      ALL NODES HAVING ANY ELEMENT IN ELEMENT SET.

      289 NODES (OF     4521  DEFINED) SELECTED FROM
       80 SELECTED ELEMENTS BY NSLE COMMAND.

 SPECIFIED SURFACE LOAD PRES FOR ALL SELECTED ELEMENTS  LKEY =  1   KVAL = 1
      SET ACCORDING TO TABLE PARAMETER = _LOADVARI32X                    

 SPECIFIED SURFACE LOAD PRES FOR ALL SELECTED ELEMENTS  LKEY =  2   KVAL = 1
      SET ACCORDING TO TABLE PARAMETER = _LOADVARI32Y                    

 SPECIFIED SURFACE LOAD PRES FOR ALL SELECTED ELEMENTS  LKEY =  3   KVAL = 1
      SET ACCORDING TO TABLE PARAMETER = _LOADVARI32Z                    

 ALL SELECT   FOR ITEM=NODE COMPONENT=    
  IN RANGE         1 TO       4521 STEP          1

       4521  NODES (OF       4521  DEFINED) SELECTED BY NSEL  COMMAND.

 ALL SELECT   FOR ITEM=ELEM COMPONENT=    
  IN RANGE         1 TO        962 STEP          1

        961  ELEMENTS (OF        961  DEFINED) SELECTED BY  ESEL  COMMAND.

 SELECT       FOR ITEM=NODE COMPONENT=    
  IN RANGE      4521 TO       4521 STEP          1

          1  NODES (OF       4521  DEFINED) SELECTED BY  NSEL  COMMAND.

 SPECIFIED NODAL LOAD MX   FOR SELECTED NODES         1 TO     4521 BY        1
  SET ACCORDING TO TABLE PARAMETER = _LOADVARI29X

 SPECIFIED NODAL LOAD MY   FOR SELECTED NODES         1 TO     4521 BY        1
  SET ACCORDING TO TABLE PARAMETER = _LOADVARI29Y

 SPECIFIED NODAL LOAD MZ   FOR SELECTED NODES         1 TO     4521 BY        1
  SET ACCORDING TO TABLE PARAMETER = _LOADVARI29Z

 ALL SELECT   FOR ITEM=NODE COMPONENT=    
  IN RANGE         1 TO       4521 STEP          1

       4521  NODES (OF       4521  DEFINED) SELECTED BY NSEL  COMMAND.

 PRINTOUT RESUMED BY /GOP

 USE       1 SUBSTEPS INITIALLY THIS LOAD STEP FOR ALL  DEGREES OF FREEDOM
 FOR AUTOMATIC TIME STEPPING:
   USE      1 SUBSTEPS AS A MAXIMUM
   USE      1 SUBSTEPS AS A MINIMUM

 TIME=  1.0000    

 ERASE THE CURRENT DATABASE OUTPUT CONTROL TABLE.


 WRITE ALL  ITEMS TO THE DATABASE WITH A FREQUENCY OF NONE
   FOR ALL APPLICABLE ENTITIES

 WRITE NSOL ITEMS TO THE DATABASE WITH A FREQUENCY OF ALL 
   FOR ALL APPLICABLE ENTITIES

 WRITE RSOL ITEMS TO THE DATABASE WITH A FREQUENCY OF ALL 
   FOR ALL APPLICABLE ENTITIES

 WRITE STRS ITEMS TO THE DATABASE WITH A FREQUENCY OF ALL 
   FOR ALL APPLICABLE ENTITIES

 WRITE EPEL ITEMS TO THE DATABASE WITH A FREQUENCY OF ALL 
   FOR ALL APPLICABLE ENTITIES

 WRITE EPPL ITEMS TO THE DATABASE WITH A FREQUENCY OF ALL 
   FOR ALL APPLICABLE ENTITIES

 NONLINEAR STABILIZATION CONTROL:
 KEY=OFF 


 *GET  ANSINTER_  FROM  ACTI  ITEM=INT        VALUE=  0.00000000    

 *IF  ANSINTER_                         ( =   0.00000     )  NE  
      0                                 ( =   0.00000     )  THEN    

 *ENDIF

 *****  ANSYS SOLVE    COMMAND  *****

 *** WARNING ***                         CP =       0.546   TIME= 23:56:50
 Element shape checking is currently inactive.  Issue SHPP,ON or         
 SHPP,WARN to reactivate, if desired.                                    

 *** NOTE ***                            CP =       0.562   TIME= 23:56:50
 The model data was checked and warning messages were found.             
  Please review output or errors file (                                  
 C:\Users\DELL\AppData\Local\Temp\WB_DELL-PC_DELL_8948_2\_ProjectScratch 
 h\ScrA75A\file0.err ) for these warning messages.                       

 *** SELECTION OF ELEMENT TECHNOLOGIES FOR APPLICABLE ELEMENTS ***
      --- GIVE SUGGESTIONS AND RESET THE KEY OPTIONS ---

 ELEMENT TYPE    1 IS SOLID186. KEYOPT(2)=0 IS SUGGESTED AND HAS BEEN RESET.
  KEYOPT(1-12)=    0    0    0    0    0    0    0    0    0    0    0    0



 *** ANSYS - ENGINEERING ANALYSIS SYSTEM  RELEASE Release 18.2     18.2     ***
 DISTRIBUTED ANSYS Academic Teaching Introductory              

 01055371  VERSION=WINDOWS x64   23:56:50  APR 27, 2018 CP=      0.562

 unsaved_project--Static Structural (A5)                                       



                       S O L U T I O N   O P T I O N S

   PROBLEM DIMENSIONALITY. . . . . . . . . . . . .3-D                  
   DEGREES OF FREEDOM. . . . . . UX   UY   UZ   ROTX ROTY ROTZ
   ANALYSIS TYPE . . . . . . . . . . . . . . . . .STATIC (STEADY-STATE)
   OFFSET TEMPERATURE FROM ABSOLUTE ZERO . . . . .  273.15    
   EQUATION SOLVER OPTION. . . . . . . . . . . . .PCG                
      TOLERANCE. . . . . . . . . . . . . . . . . . 1.00000E-08
   GLOBALLY ASSEMBLED MATRIX . . . . . . . . . . .SYMMETRIC  

 *** WARNING ***                         CP =       0.577   TIME= 23:56:50
 Material number 2 (used by element 722 ) should normally have at least  
 one MP or one TB type command associated with it.  Output of energy by  
 material may not be available.                                          

 *** NOTE ***                            CP =       0.577   TIME= 23:56:50
 The step data was checked and warning messages were found.              
  Please review output or errors file (                                  
 C:\Users\DELL\AppData\Local\Temp\WB_DELL-PC_DELL_8948_2\_ProjectScratch 
 h\ScrA75A\file0.err ) for these warning messages.                       

 *** NOTE ***                            CP =       0.577   TIME= 23:56:50
 The conditions for direct assembly have been met.  No .emat or .erot    
 files will be produced.                                                 

 *** NOTE ***                            CP =       0.593   TIME= 23:56:50
 Internal nodes from 4522 to 4522 are created.                           
 1 internal nodes are used for handling degrees of freedom on pilot      
 nodes of rigid target surfaces.                                         

 *** NOTE ***                            CP =       0.593   TIME= 23:56:50
 Internal nodes from 4522 to 4522 are created.                           
 1 internal nodes are used for handling degrees of freedom on pilot      
 nodes of rigid target surfaces.                                         

 *** NOTE ***                            CP =       0.624   TIME= 23:56:50
 Force-distributed-surface identified by real constant set 3 and         
 contact element type 3 has been set up.  The pilot node 4521 is used    
 to apply the force.  Internal MPC will be built.                        
 The used degrees of freedom set is  UX   UY   UZ   ROTX ROTY ROTZ
 Please verify constraints (including rotational degrees of freedom)
  on the pilot node by yourself.
 ****************************************
  
  
  

 *** NOTE ***                            CP =       0.655   TIME= 23:56:51
 Internal nodes from 4522 to 4522 are created.                           
 1 internal nodes are used for handling degrees of freedom on pilot      
 nodes of rigid target surfaces.                                         

  
  
     D I S T R I B U T E D   D O M A I N   D E C O M P O S E R
  
  ...Number of elements: 961
  ...Number of nodes:    4522
  ...Decompose to 2 CPU domains
  ...Element load balance ratio =     1.167


                      L O A D   S T E P   O P T I O N S

   LOAD STEP NUMBER. . . . . . . . . . . . . . . .     1
   TIME AT END OF THE LOAD STEP. . . . . . . . . .  1.0000    
   NUMBER OF SUBSTEPS. . . . . . . . . . . . . . .     1
   STEP CHANGE BOUNDARY CONDITIONS . . . . . . . .    NO
   PRINT OUTPUT CONTROLS . . . . . . . . . . . . .NO PRINTOUT
   DATABASE OUTPUT CONTROLS
      ITEM     FREQUENCY   COMPONENT
       ALL       NONE               
      NSOL        ALL               
      RSOL        ALL               
      STRS        ALL               
      EPEL        ALL               
      EPPL        ALL               


 SOLUTION MONITORING INFO IS WRITTEN TO FILE= file.mntr                                                                                                                                                                                                                                                           


 *** NOTE ***                            CP =       0.920   TIME= 23:56:51
 The PCG solver has automatically set the level of difficulty for this   
 model to 2.                                                             


                         ***********  PRECISE MASS SUMMARY  ***********

   TOTAL RIGID BODY MASS MATRIX ABOUT ORIGIN
               Translational mass               |   Coupled translational/rotational mass
        0.33910E-04    0.0000        0.0000     |     0.0000      -0.86659E-12  -0.46487E-03
         0.0000       0.33910E-04    0.0000     |    0.86659E-12    0.0000      -0.62127E-12
         0.0000        0.0000       0.33910E-04 |    0.46487E-03   0.62127E-12    0.0000    
     ------------------------------------------ | ------------------------------------------
                                                |         Rotational mass (inertia)
                                                |    0.13731E-01   0.84677E-11   0.98758E-09
                                                |    0.84677E-11   0.10035E-01   0.12719E-10
                                                |    0.98758E-09   0.12719E-10   0.13731E-01

   TOTAL MASS = 0.33910E-04
     The mass principal axes coincide with the global Cartesian axes

   CENTER OF MASS (X,Y,Z)=  -0.18321E-07    13.709      -0.25556E-07

   TOTAL INERTIA ABOUT CENTER OF MASS
        0.73582E-02  -0.49388E-13   0.98758E-09
       -0.49388E-13   0.10035E-01   0.83933E-12
        0.98758E-09   0.83933E-12   0.73582E-02
     The inertia principal axes coincide with the global Cartesian axes


  *** MASS SUMMARY BY ELEMENT TYPE ***

  TYPE      MASS
     1  0.339095E-04

 Range of element maximum matrix coefficients in global coordinates
 Maximum = 2504376.01 at element 681.                                    
 Minimum = 807533.114 at element 305.                                    

   *** ELEMENT MATRIX FORMULATION TIMES
     TYPE    NUMBER   ENAME      TOTAL CP  AVE CP

        1       720  SOLID186      0.187   0.000260
        2        80  SURF154       0.000   0.000000
        3       160  CONTA174      0.016   0.000098
        4         1  TARGE170      0.000   0.000000
 Time at end of element matrix formulation CP = 1.10760713.              
 curEqn=   1074  totEqn=   1074 Job CP sec=      1.217
      Factor Done= 100% Factor Wall sec=      0.808 rate=      19.8 Mflops
 Iteration=    10 Ratio=  0.150356     Limit=  1.000000E-08 Wall=     0.0
 Iteration=    95 Ratio=  9.487071E-04 Limit=  1.000000E-08 Wall=     0.2
 Iteration=   275 Ratio=  2.902492E-06 Limit=  1.000000E-08 Wall=     0.6

 DISTRIBUTED PCG SOLVER SOLUTION CONVERGED

 DISTRIBUTED PCG SOLVER SOLUTION STATISTICS

   NUMBER OF DOMAINS   =          40
   NUMBER OF ITERATIONS=         435
   NUMBER OF EQUATIONS =       13572
   LEVEL OF CONVERGENCE=           1
   CALCULATED NORM     = 0.95402E-08
   SPECIFIED TOLERANCE = 0.10000E-07
   TOTAL CPU TIME (sec)=        1.05
   TOTAL WALL TIME(sec)=        2.60
   TOTAL MEMORY (GB)   =        0.00


   *** ELEMENT RESULT CALCULATION TIMES
     TYPE    NUMBER   ENAME      TOTAL CP  AVE CP

        1       720  SOLID186      0.094   0.000130
        2        80  SURF154       0.000   0.000000
        3       160  CONTA174      0.000   0.000000

   *** NODAL LOAD CALCULATION TIMES
     TYPE    NUMBER   ENAME      TOTAL CP  AVE CP

        1       720  SOLID186      0.000   0.000000
        2        80  SURF154       0.000   0.000000
        3       160  CONTA174      0.000   0.000000
 *** LOAD STEP     1   SUBSTEP     1  COMPLETED.    CUM ITER =      1
 *** TIME =   1.00000         TIME INC =   1.00000      NEW TRIANG MATRIX


 *** ANSYS BINARY FILE STATISTICS
  BUFFER SIZE USED= 16384
        0.938 MB WRITTEN ON ELEMENT SAVED DATA FILE: file0.esav
        1.375 MB WRITTEN ON RESULTS FILE: file0.rst
 *************** Write FE CONNECTORS *********

 WRITE OUT CONSTRAINT EQUATIONS TO FILE= file.ce                                                                                                                                                                                                                                                             
 ****************************************************
 *************** FINISHED SOLVE FOR LS 1 *************

 *GET  _WALLASOL  FROM  ACTI  ITEM=TIME WALL  VALUE=  23.9483333    

 PRINTOUT RESUMED BY /GOP

 *GET  _PCGITER  FROM  ACTI  ITEM=SOLU CGIT  VALUE=  435.000000    

 FINISH SOLUTION PROCESSING


 ***** ROUTINE COMPLETED *****  CP =         2.309



 *** ANSYS - ENGINEERING ANALYSIS SYSTEM  RELEASE Release 18.2     18.2     ***
 DISTRIBUTED ANSYS Academic Teaching Introductory              

 01055371  VERSION=WINDOWS x64   23:56:54  APR 27, 2018 CP=      2.309

 unsaved_project--Static Structural (A5)                                       



          ***** ANSYS RESULTS INTERPRETATION (POST1) *****

 *** NOTE ***                            CP =       2.324   TIME= 23:56:54
 Reading results into the database (SET command) will update the current 
 displacement and force boundary conditions in the database with the     
 values from the results file for that load set.  Note that any          
 subsequent solutions will use these values unless action is taken to    
 either SAVE the current values or not overwrite them (/EXIT,NOSAVE).    

 Set Encoding of XML File to:ISO-8859-1

 Set Output of XML File to:
     PARM,     ,     ,     ,     ,     ,     ,     ,     ,     ,     ,     ,
         ,     ,     ,     ,     ,     ,     ,

 DATABASE WRITTEN ON FILE  parm.xml                                                                                                                                                                                                                                                            

 EXIT THE ANSYS POST1 DATABASE PROCESSOR


 ***** ROUTINE COMPLETED *****  CP =         2.371



 PRINTOUT RESUMED BY /GOP

 *GET  _WALLDONE  FROM  ACTI  ITEM=TIME WALL  VALUE=  23.9486111    

 PARAMETER _PREPTIME =     0.000000000    

 PARAMETER _SOLVTIME =     4.000000000    

 PARAMETER _POSTTIME =     1.000000000    

 PARAMETER _TOTALTIM =     5.000000000    

 EXIT ANSYS WITHOUT SAVING DATABASE


 NUMBER OF WARNING MESSAGES ENCOUNTERED=          2
 NUMBER OF ERROR   MESSAGES ENCOUNTERED=          0

+--------- D I S T R I B U T E D   A N S Y S   S T A T I S T I C S ------------+

Release: Release 18.2       Build: 18.2       Update: UP20170726   Platform: WINDOWS x64 
Date Run: 04/27/2018   Time: 23:56     Process ID: 9984
Operating System: Windows 7  (Build: 7600)

Processor Model: Intel(R) Core(TM) i5-5200U CPU @ 2.20GHz

Compiler: Intel(R) FORTRAN Compiler Version 15.0.7  (Build: 20160518)
          Intel(R) C/C++ Compiler Version 15.0.7  (Build: 20160518)
          Intel(R) Math Kernel Library Version 2017.0.2 Product Build 20170126

Number of machines requested            :    1
Total number of cores available         :    4
Number of physical cores available      :    2
Number of processes requested           :    2
Number of threads per process requested :    1
Total number of cores requested         :    2 (Distributed Memory Parallel)               
MPI Type: INTELMPI
MPI Version: Intel(R) MPI Library 5.1.3 for Windows* OS


GPU Acceleration: Not Requested

Job Name: file0
Input File: dummy.dat

  Core                Machine Name   Working Directory
 -----------------------------------------------------
     0                     DELL-PC   C:\Users\DELL\AppData\Local\Temp\WB_DELL-PC_DELL_8948_2\_ProjectScratch\ScrA75A
     1                     DELL-PC   C:\Users\DELL\AppData\Local\Temp\WB_DELL-PC_DELL_8948_2\_ProjectScratch\ScrA75A
 
Latency time from master to core     1 =    1.253 microseconds
 
Communication speed from master to core     1 =  1859.14 MB/sec

Total CPU time for main thread                    :        2.1 seconds
Total CPU time summed for all threads             :        2.6 seconds

Elapsed time spent pre-processing model (/PREP7)  :        0.1 seconds
Elapsed time spent solution - preprocessing       :        0.2 seconds
Elapsed time spent computing solution             :        3.6 seconds
Elapsed time spent solution - postprocessing      :        0.1 seconds
Elapsed time spent post-processing model (/POST1) :        0.1 seconds
 
Equation solver used                              :            PCG (symmetric)
Equation solver computational rate                :     4076.5 Mflops

Maximum total memory used                         :       94.0 MB
Maximum total memory allocated                    :     3136.0 MB
Total physical memory available                   :          4 GB

+------ E N D   D I S T R I B U T E D   A N S Y S   S T A T I S T I C S -------+


 *---------------------------------------------------------------------------*
 |                                                                           |
 |                       DISTRIBUTED ANSYS RUN COMPLETED                     |
 |                                                                           |
 |---------------------------------------------------------------------------|
 |                                                                           |
 | Ansys Release 18.2          Build 18.2         UP20170726     WINDOWS x64 |
 |                                                                           |
 |---------------------------------------------------------------------------|
 |                                                                           |
 | Database Requested(-db)  1024 MB    Scratch Memory Requested      1024 MB |
 | Maximum Database Used       3 MB    Maximum Scratch Memory Used     47 MB |
 |                                                                           |
 |---------------------------------------------------------------------------|
 |                                                                           |
 |        CP Time      (sec) =          2.636       Time  =  23:56:55        |
 |        Elapsed Time (sec) =          7.000       Date  =  04/27/2018      |
 |                                                                           |
 *---------------------------------------------------------------------------*
